%nprocshared=6
#p opt=ReadOptimize nosymm am1

tetrad-LQS-docked Amino frozen relaxation, from cluster-tetrad-h.pdb

0 1
N         14.63500       -7.75700       22.12500
C         13.89000       -7.19000       23.22500
C         12.61800       -7.95800       23.56000
O         11.99300       -7.61700       24.56900
C         13.64900       -5.68500       23.10700
C         12.66100       -5.26800       22.07400
C         12.82400       -4.45100       21.01200
N         11.31600       -5.54600       22.21500
C         10.71700       -4.96900       21.17900
N         11.58000       -4.26600       20.45500
H         15.11600       -8.63800       22.23900
H         14.55100       -7.31200       24.08300
H         12.27200       -8.77900       22.93200
H         14.60200       -5.25500       22.79700
H         13.29600       -5.32500       24.07300
H         13.76200       -4.02000       20.66300
H          9.65500       -5.06100       20.95300
H         14.67400       -7.26500       21.23200
H         10.87400       -6.08300       22.96100
H         11.36100       -3.69500       19.63800
N          3.01600       -4.32400       19.89100
C          2.82600       -5.66400       19.36100
C          3.32900       -5.80700       17.92800
O          3.41200       -6.92700       17.42600
H          1.75500       -5.86700       19.35600
H          3.36600       -6.36900       19.99300
H          2.23300       -3.69300       19.98000
H          3.95100       -4.03000       20.17200
N          3.64000       -4.67600       17.24800
C          4.10800       -4.75200       15.85600
C          5.58000       -5.05600       15.71400
O          6.04400       -5.29900       14.59900
C          3.81700       -3.44200       15.13000
O          4.51700       -2.38300       15.76400
H          2.74600       -3.24000       15.16200
H          4.14000       -3.52200       14.09200
H          3.56100       -5.58400       15.41400
H          3.54900       -3.76800       17.70400
H          4.33600       -1.56700       15.31200
N          6.36800       -5.03900       16.80500
C          7.79900       -5.33100       16.67000
C          8.02600       -6.68600       16.03900
O          7.22800       -7.59900       16.24900
C          8.52100       -5.21900       18.00200
S          8.48600       -3.55100       18.69000
H          8.89300       -6.85400       15.40000
H          9.56600       -5.47600       17.82700
H          8.22200       -4.57800       16.00400
H          8.04800       -5.89700       18.71200
H          5.97200       -4.82400       17.72000
N          9.21200       -5.17900       25.16400
H          9.96800       -4.49100       25.12400
H          8.80100       -5.08700       26.09100
C          8.20800       -4.82200       24.13700
C          8.30300       -3.29500       23.92000
O          8.66300       -2.51200       24.79700
N          8.02900       -2.89800       22.63000
H          7.55100       -3.55600       22.02600
C          7.95700       -1.49000       22.26200
C          6.75600       -1.31200       21.30700
O          6.00900       -2.23400       20.98400
N          6.61900       -0.04700       20.78600
H          7.28700        0.68000       21.03000
C          5.69500        0.25200       19.69400
C          6.43000       -0.02600       18.37600
O          7.63200        0.16700       18.22600
O          5.65700       -0.55700       17.40100
H          6.01200       -0.35400       16.49900
C          5.18600        1.69300       19.74100
O          4.64700        2.05200       18.45900
H          5.38100        2.46900       17.96400
C          9.27100       -1.07200       21.59100
C         10.12200       -0.14100       22.45300
C          9.53500        1.25100       22.53100
O          8.68900        1.60700       23.34100
N         10.03900        2.11900       21.60700
H          9.71600        3.07700       21.64100
H         10.82700        1.89500       21.01600
C          6.81000       -5.26900       24.59500
C          5.82700       -5.70700       23.48300
C          6.53900       -6.16300       22.20900
C          4.77000       -4.65700       23.15100
H          8.39279       -5.31978       23.20804
H          7.81895       -0.86990       23.12300
H          4.82778       -0.36824       19.78419
H          4.42211        1.77741       20.48548
H          5.99511        2.34948       19.98444
H          9.03948       -0.56933       20.67524
H          9.84120       -1.96294       21.42979
H         11.10309       -0.07928       22.03045
H         10.15275       -0.54336       23.44399
H          6.93540       -6.09590       25.26239
H          6.36695       -4.40252       25.03977
H          5.31540       -6.54966       23.89903
H          7.05860       -5.33452       21.77479
H          5.81837       -6.53696       21.51204
H          7.23827       -6.93662       22.44863
H          5.24371       -3.79454       22.73069
H          4.25061       -4.37893       24.04420
H          4.07474       -5.06150       22.44538

noatoms atoms=1-100 notatoms=1,3,42,21

