%mem=100GB
%nprocshared=20
#p sp b3lyp/6-31g*

 cluster-tetrad-h.pdb

0  1 
N          14.69500        -7.66900        22.20500
N          14.69500        -7.66900        22.20500
N          14.69500        -7.66900        22.20500
N          14.69500        -7.66900        22.20500
C          13.93200        -7.04800        23.31700
C          13.93200        -7.04800        23.31700
C          13.93200        -7.04800        23.31700
C          13.93200        -7.04800        23.31700
C          12.69000        -7.88300        23.67700
C          12.69000        -7.88300        23.67700
C          12.69000        -7.88300        23.67700
C          12.69000        -7.88300        23.67700
O          12.09000        -7.58800        24.72300
O          12.09000        -7.58800        24.72300
O          12.09000        -7.58800        24.72300
O          12.09000        -7.58800        24.72300
C          13.69500        -5.55600        23.09200
C          13.69500        -5.55600        23.09200
C          13.69500        -5.55600        23.09200
C          13.69500        -5.55600        23.09200
C          12.68100        -5.18500        22.06200
C          12.68100        -5.18500        22.06200
C          12.68100        -5.18500        22.06200
C          12.68100        -5.18500        22.06200
C          12.75300        -4.31400        21.03200
C          12.75300        -4.31400        21.03200
C          12.75300        -4.31400        21.03200
C          12.75300        -4.31400        21.03200
N          11.40300        -5.68800        22.05800
N          11.40300        -5.68800        22.05800
N          11.40300        -5.68800        22.05800
N          11.40300        -5.68800        22.05800
C          10.72000        -5.11300        21.07800
C          10.72000        -5.11300        21.07800
C          10.72000        -5.11300        21.07800
C          10.72000        -5.11300        21.07800
N          11.52500        -4.26200        20.44800
N          11.52500        -4.26200        20.44800
N          11.52500        -4.26200        20.44800
N          11.52500        -4.26200        20.44800
H          15.02600        -8.61900        22.28900
H          15.02600        -8.61900        22.28900
H          14.88300        -7.14100        21.36500
H          14.88300        -7.14100        21.36500
H          14.54300        -7.07000        24.22000
H          14.54300        -7.07000        24.22000
H          12.35100        -8.70000        23.04000
H          12.35100        -8.70000        23.04000
H          14.64100        -5.17100        22.71300
H          14.64100        -5.17100        22.71300
H          13.37500        -5.12500        24.04100
H          13.37500        -5.12500        24.04100
H          13.63600        -3.75400        20.72400
H          13.63600        -3.75400        20.72400
H           9.67600        -5.30500        20.83100
H           9.67600        -5.30500        20.83100
H          11.26800        -3.67500        19.66700
H          11.26800        -3.67500        19.66700
H          15.02600        -8.61900        22.28900
H          14.88300        -7.14100        21.36500
H          14.54300        -7.07000        24.22000
H          12.35100        -8.70000        23.04000
H          14.64100        -5.17100        22.71300
H          13.37500        -5.12500        24.04100
H          13.63600        -3.75400        20.72400
H           9.67600        -5.30500        20.83100
H          11.26800        -3.67500        19.66700
H          15.02600        -8.61900        22.28900
H          14.88300        -7.14100        21.36500
H          14.54300        -7.07000        24.22000
H          12.35100        -8.70000        23.04000
H          14.64100        -5.17100        22.71300
H          13.37500        -5.12500        24.04100
H          13.63600        -3.75400        20.72400
H           9.67600        -5.30500        20.83100
H          11.26800        -3.67500        19.66700
N           3.11800        -4.18500        19.83500
C           2.83900        -5.53700        19.34300
C           3.35400        -5.71500        17.92800
O           3.41900        -6.88600        17.50700
H           3.29600        -4.03200        20.81700
H           1.76000        -5.69100        19.34300
H           3.32600        -6.26200        19.99500
H           3.13200        -3.40600        19.19200
N           3.69700        -4.62200        17.23700
N           3.69700        -4.62200        17.23700
C           4.11400        -4.64500        15.79800
C           4.11400        -4.64500        15.79800
C           5.59300        -5.00300        15.68100
C           5.59300        -5.00300        15.68100
O           6.02100        -5.30000        14.56100
O           6.02100        -5.30000        14.56100
C           3.84000        -3.34800        15.07100
C           3.84000        -3.34800        15.07100
O           4.60700        -2.26400        15.59800
O           4.60700        -2.26400        15.59800
H           3.71100        -3.75400        17.75300
H           3.50400        -5.40900        15.31600
H           2.78500        -3.10700        15.20100
H           4.08800        -3.47600        14.01700
H           4.81800        -2.43800        16.51800
H           3.67400        -3.73100        17.71200
H           3.40200        -5.47500        17.69100
H           3.50400        -5.40900        15.31600
H           2.78500        -3.10700        15.20100
H           4.08800        -3.47600        14.01700
H           4.81800        -2.43800        16.51800
N           6.35600        -4.99500        16.77300
N           6.35600        -4.99500        16.77300
N           6.35600        -4.99500        16.77300
N           6.35600        -4.99500        16.77300
C           7.79100        -5.35600        16.72500
C           7.79100        -5.35600        16.72500
C           7.79100        -5.35600        16.72500
C           7.79100        -5.35600        16.72500
C           7.97700        -6.73300        16.06300
C           7.97700        -6.73300        16.06300
C           7.97700        -6.73300        16.06300
C           7.97700        -6.73300        16.06300
O           7.12700        -7.63000        16.21800
O           7.12700        -7.63000        16.21800
O           7.12700        -7.63000        16.21800
O           7.12700        -7.63000        16.21800
C           8.43400        -5.23600        18.10000
C           8.43400        -5.23600        18.10000
C           8.43400        -5.23600        18.10000
C           8.43400        -5.23600        18.10000
S           8.31100        -3.55500        18.78200
S           8.31100        -3.55500        18.78200
S           8.31100        -3.55500        18.78200
S           8.31100        -3.55500        18.78200
H           8.32200        -4.64300        16.09500
H           8.32200        -4.64300        16.09500
H           8.86000        -6.92500        15.45300
H           8.86000        -6.92500        15.45300
H           9.49300        -5.47300        17.99200
H           9.49300        -5.47300        17.99200
H           7.93700        -5.92700        18.78100
H           7.93700        -5.92700        18.78100
H           8.63400        -2.66300        17.83500
H           8.63400        -2.66300        17.83500
H           5.94400        -4.73600        17.65800
H           5.94400        -4.73600        17.65800
H           5.85900        -5.01600        17.65200
H           5.87400        -4.72800        15.92700
H           8.32200        -4.64300        16.09500
H           8.86000        -6.92500        15.45300
H           9.49300        -5.47300        17.99200
H           7.93700        -5.92700        18.78100
H           8.63400        -2.66300        17.83500
H           5.94400        -4.73600        17.65800
H           8.32200        -4.64300        16.09500
H           8.86000        -6.92500        15.45300
H           9.49300        -5.47300        17.99200
H           7.93700        -5.92700        18.78100
H           5.79600        -5.00800        15.93200
H           8.63400        -2.66300        17.83500
O          21.74800        18.78900       -19.29300
O          21.74800        18.78900       -19.29300
H          20.82200        19.03700       -19.33400
H          21.69300        18.47400       -18.38800
H          22.06400        18.58100       -20.17500
H          21.18300        19.55800       -19.40000
O          15.95300        24.50500         8.28500
H          16.19800        25.41700         8.45900
H          15.84000        24.04000         9.11700
O          20.08300        14.11700       -18.59800
H          19.70800        13.93800       -19.46300
H          20.32200        13.28900       -18.17500
O          -3.04600        21.50700        -9.91500
O          -3.04600        21.50700        -9.91500
H          -3.48400        22.12300        -9.32400
H          -2.96500        21.90100       -10.78700
H          -2.90900        22.42500       -10.15900
H          -3.66600        21.45900        -9.18400

