%mem=100GB
%nprocshared=20
#p sp b3lyp/6-31g*

 lig-h.pdb

0 1 
C           7.71200         4.97600        22.56800
N           7.99100         2.59400        22.44000
O           6.30700         3.38500        23.66400
C           7.28100         3.59600        22.95000
N           9.09600        -0.84400        22.61100
O           5.70200         0.78400        16.93000
C           7.86600         1.22300        22.91400
O           9.86600         1.01700        21.61100
C           6.52600         0.58300        22.51500
C           6.27300         0.62600        21.02800
C           5.38600         1.53800        20.47500
C           5.17400         1.59900        19.10800
C           5.86300         0.73700        18.27300
C           6.75500        -0.17200        18.80200
C           6.95100        -0.22400        20.16900
C           9.04300         0.45300        22.33000
C           9.98000        -1.72800        21.88200
C          11.35100        -1.59200        22.37600
C          12.45800        -1.64200        22.83300
Br         14.18000        -1.92500        23.66000
H           8.69300         4.93200        22.09500
H           6.99200         5.40200        21.87000
H           7.76700         5.60000        23.46000
H           8.64300         2.79200        21.69400
H           8.51100        -1.21900        23.34400
H           5.31300        -0.03900        16.62500
H           7.88000         1.20100        24.00400
H           5.73400         1.15600        22.99700
H           6.52700        -0.45800        22.83800
H           4.84500         2.22100        21.13000
H           4.47000         2.32000        18.69300
H           7.30300        -0.84700        18.14500
H           7.65400        -0.94900        20.58000
H           9.95500        -1.46300        20.82500
H           9.64900        -2.75800        22.01400
H          10.96800        -1.77100        23.38100
H          11.72000        -1.28000        21.39900
H          12.01200        -1.66900        23.82700
H          12.91000        -1.50200        21.85100

